/*--------------------------------*- C++ -*----------------------------------*\
| =========                 |                                                 |
| \\      /  F ield         | OpenFOAM: The Open Source CFD Toolbox           |
|  \\    /   O peration     | Version:  2.4.x                                 |
|   \\  /    A nd           | Web:      www.OpenFOAM.org                      |
|    \\/     M anipulation  |                                                 |
\*---------------------------------------------------------------------------*/
FoamFile
{
    version     2.0;
    format      ascii;
    class       dictionary;
    object      blockMeshDict;
}
// * * * * * * * * * * * * * * * * * * * * * * * * * * * * * * * * * * * * * //

convertToMeters 1;

vertices
(
    ( 5.5 -6 -1.5) // 0
    ( 5.5  6 -1.5) // 1
    (-1.5  6 -1.5) // 2
    (-1.5 -6 -1.5) // 3
    ( 5.5 -6  1.5) // 4
    ( 5.5  6  1.5) // 5
    (-1.5  6  1.5) // 6
    (-1.5 -6  1.5) // 7
);

blocks
(
    hex (0 1 2 3 4 5 6 7)
    (64 42 24)
    simpleGrading (1 1 1)
);

boundary
(
    inlet
    {
        type patch;
        faces
        (
            (2 6 7 3)
        );
    }

    outlet
    {
	type patch;
	faces
        (
            (0 4 5 1)
        );
    }

    walls
    {
	type wall;
        faces
        (
            (1 5 6 2)
            (4 0 3 7)
        );
    }

    top
    {
	type wall;
	faces
        (
            (4 7 6 5)
        );
    }

    bottom
    {
	type wall;
        faces
        (
            (0 1 2 3)
        );
    }
);

edges
(
);

mergePatchPairs
(
);

// ************************************************************************* //
